@<TRIPOS>MOLECULE
activeTOX4781
 17 17 0 0 0
SMALL
MMFF94_CHARGES

@<TRIPOS>ATOM
      1 O           0.0000    0.0000    0.0000 O.2     1  UNL1       -0.5200
      2 N           0.0000    0.0000    0.0000 N.pl3   1  UNL1        0.9070
      3 O           0.0000    0.0000    0.0000 O.co2   1  UNL1       -0.5200
      4 C           0.0000    0.0000    0.0000 C.ar    1  UNL1        0.1330
      5 C           0.0000    0.0000    0.0000 C.ar    1  UNL1        0.0000
      6 C           0.0000    0.0000    0.0000 C.ar    1  UNL1       -0.1435
      7 C           0.0000    0.0000    0.0000 C.3     1  UNL1        1.1635
      8 F           0.0000    0.0000    0.0000 F       1  UNL1       -0.3400
      9 F           0.0000    0.0000    0.0000 F       1  UNL1       -0.3400
     10 F           0.0000    0.0000    0.0000 F       1  UNL1       -0.3400
     11 C           0.0000    0.0000    0.0000 C.ar    1  UNL1        0.0000
     12 C           0.0000    0.0000    0.0000 C.ar    1  UNL1        0.1330
     13 N           0.0000    0.0000    0.0000 N.pl3   1  UNL1        0.9070
     14 O           0.0000    0.0000    0.0000 O.2     1  UNL1       -0.5200
     15 O           0.0000    0.0000    0.0000 O.co2   1  UNL1       -0.5200
     16 C           0.0000    0.0000    0.0000 C.ar    1  UNL1        0.1770
     17 CL          0.0000    0.0000    0.0000 Cl      1  UNL1       -0.1770
@<TRIPOS>BOND
     1     1     2    2
     2     2     3    1
     3     2     4    1
     4     4     5   ar
     5     5     6   ar
     6     6     7    1
     7     7     8    1
     8     7     9    1
     9     7    10    1
    10     6    11   ar
    11    11    12   ar
    12    12    13    1
    13    13    14    2
    14    13    15    1
    15    12    16   ar
    16     4    16   ar
    17    16    17    1
@<TRIPOS>MOLECULE
activeTOX25534
 31 35 0 0 0
SMALL
MMFF94_CHARGES

@<TRIPOS>ATOM
      1 C           0.0000    0.0000    0.0000 C.3     1  UNL1       -0.6350
      2 C           0.0000    0.0000    0.0000 C.3     1  UNL1        1.8300
      3 C           0.0000    0.0000    0.0000 C.3     1  UNL1       -0.6350
      4 O           0.0000    0.0000    0.0000 O.3     1  UNL1       -0.3567
      5 C           0.0000    0.0000    0.0000 C.3     1  UNL1        0.0035
      6 C           0.0000    0.0000    0.0000 C.3     1  UNL1       -0.1300
      7 C           0.0000    0.0000    0.0000 C.3     1  UNL1       -0.0732
      8 C           0.0000    0.0000    0.0000 C.3     1  UNL1        0.0650
      9 C           0.0000    0.0000    0.0000 C.3     1  UNL1       -0.1300
     10 C           0.0000    0.0000    0.0000 C.3     1  UNL1        0.2145
     11 F           0.0000    0.0000    0.0000 F       1  UNL1       -0.1495
     12 C           0.0000    0.0000    0.0000 C.2     1  UNL1       -0.0732
     13 C           0.0000    0.0000    0.0000 C.2     1  UNL1       -0.1700
     14 C           0.0000    0.0000    0.0000 C.2     1  UNL1        0.7800
     15 O           0.0000    0.0000    0.0000 O.2     1  UNL1       -0.5700
     16 C           0.0000    0.0000    0.0000 C.2     1  UNL1       -0.1050
     17 C           0.0000    0.0000    0.0000 C.2     1  UNL1       -0.2000
     18 C           0.0000    0.0000    0.0000 C.3     1  UNL1        1.1114
     19 C           0.0000    0.0000    0.0000 C.3     1  UNL1       -0.6350
     20 C           0.0000    0.0000    0.0000 C.3     1  UNL1       -0.1382
     21 C           0.0000    0.0000    0.0000 C.3     1  UNL1       -0.0850
     22 O           0.0000    0.0000    0.0000 O.3     1  UNL1       -0.8500
     23 C           0.0000    0.0000    0.0000 C.3     1  UNL1       -0.2650
     24 C           0.0000    0.0000    0.0000 C.3     1  UNL1        0.9732
     25 C           0.0000    0.0000    0.0000 C.3     1  UNL1       -0.6350
     26 C           0.0000    0.0000    0.0000 C.3     1  UNL1        0.4792
     27 C           0.0000    0.0000    0.0000 C.2     1  UNL1        0.6140
     28 O           0.0000    0.0000    0.0000 O.2     1  UNL1       -0.5700
     29 C           0.0000    0.0000    0.0000 C.3     1  UNL1       -0.3490
     30 O           0.0000    0.0000    0.0000 O.3     1  UNL1       -0.7560
     31 O           0.0000    0.0000    0.0000 O.3     1  UNL1       -0.5600
@<TRIPOS>BOND
     1     1     2    1
     2     2     3    1
     3     2     4    1
     4     4     5    1
     5     5     6    1
     6     6     7    1
     7     7     8    1
     8     8     9    1
     9     9    10    1
    10    10    11    1
    11    10    12    1
    12    12    13    2
    13    13    14    1
    14    14    15    2
    15    14    16    1
    16    16    17    2
    17    17    18    1
    18    12    18    1
    19    18    19    1
    20    18    20    1
    21     8    20    1
    22    20    21    1
    23    21    22    1
    24    21    23    1
    25    23    24    1
    26     7    24    1
    27    24    25    1
    28    24    26    1
    29     5    26    1
    30    26    27    1
    31    27    28    2
    32    27    29    1
    33    29    30    1
    34    26    31    1
    35     2    31    1
@<TRIPOS>MOLECULE
activeTOX3706
 24 28 0 0 0
SMALL
MMFF94_CHARGES

@<TRIPOS>ATOM
      1 C           0.0000    0.0000    0.0000 C.3     1  UNL1       -0.6350
      2 C           0.0000    0.0000    0.0000 C.3     1  UNL1        1.1114
      3 C           0.0000    0.0000    0.0000 C.3     1  UNL1       -0.2000
      4 C           0.0000    0.0000    0.0000 C.3     1  UNL1       -0.0650
      5 C           0.0000    0.0000    0.0000 C.3     1  UNL1       -0.0732
      6 C           0.0000    0.0000    0.0000 C.3     1  UNL1        0.0650
      7 C           0.0000    0.0000    0.0000 C.3     1  UNL1       -0.0650
      8 C           0.0000    0.0000    0.0000 C.3     1  UNL1       -0.1050
      9 C           0.0000    0.0000    0.0000 C.3     1  UNL1        0.1980
     10 O           0.0000    0.0000    0.0000 O.3     1  UNL1       -0.2247
     11 C           0.0000    0.0000    0.0000 C.3     1  UNL1        0.0511
     12 C           0.0000    0.0000    0.0000 C.2     1  UNL1        0.5412
     13 O           0.0000    0.0000    0.0000 O.2     1  UNL1       -0.5700
     14 C           0.0000    0.0000    0.0000 C.3     1  UNL1        0.1444
     15 C           0.0000    0.0000    0.0000 C.1     1  UNL1        0.4921
     16 N           0.0000    0.0000    0.0000 N.1     1  UNL1       -0.5571
     17 C           0.0000    0.0000    0.0000 C.3     1  UNL1       -0.2650
     18 C           0.0000    0.0000    0.0000 C.3     1  UNL1        1.0682
     19 C           0.0000    0.0000    0.0000 C.3     1  UNL1       -0.6350
     20 C           0.0000    0.0000    0.0000 C.3     1  UNL1       -0.0732
     21 C           0.0000    0.0000    0.0000 C.3     1  UNL1       -0.0650
     22 C           0.0000    0.0000    0.0000 C.3     1  UNL1       -0.0650
     23 C           0.0000    0.0000    0.0000 C.3     1  UNL1       -0.2232
     24 O           0.0000    0.0000    0.0000 O.3     1  UNL1       -0.8500
@<TRIPOS>BOND
     1     1     2    1
     2     2     3    1
     3     3     4    1
     4     4     5    1
     5     5     6    1
     6     6     7    1
     7     7     8    1
     8     8     9    1
     9     9    10    1
    10    10    11    1
    11     9    11    1
    12    11    12    1
    13    12    13    2
    14    12    14    1
    15    14    15    1
    16    15    16    3
    17    14    17    1
    18    17    18    1
    19     5    18    1
    20     9    18    1
    21    18    19    1
    22     6    20    1
    23     2    20    1
    24    20    21    1
    25    21    22    1
    26    22    23    1
    27     2    23    1
    28    23    24    1
@<TRIPOS>MOLECULE
activeTOX26647
 30 33 0 0 0
SMALL
MMFF94_CHARGES

@<TRIPOS>ATOM
      1 C           0.0000    0.0000    0.0000 C.3     1  UNL1       -0.6350
      2 C           0.0000    0.0000    0.0000 C.3     1  UNL1        0.9732
      3 C           0.0000    0.0000    0.0000 C.3     1  UNL1       -0.2650
      4 C           0.0000    0.0000    0.0000 C.3     1  UNL1       -0.0850
      5 O           0.0000    0.0000    0.0000 O.3     1  UNL1       -0.8500
      6 C           0.0000    0.0000    0.0000 C.3     1  UNL1       -0.1382
      7 C           0.0000    0.0000    0.0000 C.3     1  UNL1        0.0650
      8 C           0.0000    0.0000    0.0000 C.3     1  UNL1       -0.0650
      9 C           0.0000    0.0000    0.0000 C.3     1  UNL1       -0.0650
     10 C           0.0000    0.0000    0.0000 C.2     1  UNL1       -0.0082
     11 C           0.0000    0.0000    0.0000 C.2     1  UNL1       -0.1700
     12 C           0.0000    0.0000    0.0000 C.2     1  UNL1        0.7800
     13 O           0.0000    0.0000    0.0000 O.2     1  UNL1       -0.5700
     14 C           0.0000    0.0000    0.0000 C.3     1  UNL1       -0.1050
     15 C           0.0000    0.0000    0.0000 C.3     1  UNL1       -0.2000
     16 C           0.0000    0.0000    0.0000 C.3     1  UNL1        1.1114
     17 C           0.0000    0.0000    0.0000 C.3     1  UNL1       -0.6350
     18 C           0.0000    0.0000    0.0000 C.3     1  UNL1       -0.0732
     19 C           0.0000    0.0000    0.0000 C.3     1  UNL1       -0.0650
     20 C           0.0000    0.0000    0.0000 C.3     1  UNL1       -0.2000
     21 C           0.0000    0.0000    0.0000 C.3     1  UNL1        0.1884
     22 O           0.0000    0.0000    0.0000 O.3     1  UNL1       -0.9274
     23 C           0.0000    0.0000    0.0000 C.2     1  UNL1        0.6140
     24 O           0.0000    0.0000    0.0000 O.2     1  UNL1       -0.5700
     25 C           0.0000    0.0000    0.0000 C.3     1  UNL1       -0.0620
     26 O           0.0000    0.0000    0.0000 O.3     1  UNL1       -0.3142
     27 P           0.0000    0.0000    0.0000 P.3     1  UNL1        1.3712
     28 O           0.0000    0.0000    0.0000 O.2     1  UNL1       -1.0333
     29 O           0.0000    0.0000    0.0000 O.3     1  UNL1       -1.0333
     30 O           0.0000    0.0000    0.0000 O.3     1  UNL1       -1.0333
@<TRIPOS>BOND
     1     1     2    1
     2     2     3    1
     3     3     4    1
     4     4     5    1
     5     4     6    1
     6     6     7    1
     7     7     8    1
     8     8     9    1
     9     9    10    1
    10    10    11    2
    11    11    12    1
    12    12    13    2
    13    12    14    1
    14    14    15    1
    15    15    16    1
    16    10    16    1
    17     6    16    1
    18    16    17    1
    19     7    18    1
    20     2    18    1
    21    18    19    1
    22    19    20    1
    23    20    21    1
    24     2    21    1
    25    21    22    1
    26    21    23    1
    27    23    24    2
    28    23    25    1
    29    25    26    1
    30    26    27    1
    31    27    28    2
    32    27    29    1
    33    27    30    1
@<TRIPOS>MOLECULE
activeTOX3049
 25 27 0 0 0
SMALL
MMFF94_CHARGES

@<TRIPOS>ATOM
      1 C           0.0000    0.0000    0.0000 C.3     1  UNL1       -0.4350
      2 C           0.0000    0.0000    0.0000 C.3     1  UNL1        0.3300
      3 C           0.0000    0.0000    0.0000 C.2     1  UNL1        0.7350
      4 O           0.0000    0.0000    0.0000 O.2     1  UNL1       -0.5700
      5 N           0.0000    0.0000    0.0000 N.am    1  UNL1       -0.2860
      6 C           0.0000    0.0000    0.0000 C.ar    1  UNL1        0.1170
      7 C           0.0000    0.0000    0.0000 C.ar    1  UNL1        0.0000
      8 C           0.0000    0.0000    0.0000 C.ar    1  UNL1        0.0000
      9 C           0.0000    0.0000    0.0000 C.ar    1  UNL1        0.0000
     10 C           0.0000    0.0000    0.0000 C.ar    1  UNL1        0.0000
     11 C           0.0000    0.0000    0.0000 C.ar    1  UNL1        0.0000
     12 C           0.0000    0.0000    0.0000 C.3     1  UNL1        0.2390
     13 C           0.0000    0.0000    0.0000 C.3     1  UNL1       -0.0650
     14 C           0.0000    0.0000    0.0000 C.3     1  UNL1        0.0530
     15 N           0.0000    0.0000    0.0000 N.3     1  UNL1       -0.1590
     16 C           0.0000    0.0000    0.0000 C.3     1  UNL1        0.0530
     17 C           0.0000    0.0000    0.0000 C.3     1  UNL1       -0.0730
     18 C           0.0000    0.0000    0.0000 C.ar    1  UNL1        0.0730
     19 C           0.0000    0.0000    0.0000 C.ar    1  UNL1        0.0000
     20 C           0.0000    0.0000    0.0000 C.ar    1  UNL1        0.0000
     21 C           0.0000    0.0000    0.0000 C.ar    1  UNL1        0.0000
     22 C           0.0000    0.0000    0.0000 C.ar    1  UNL1        0.0000
     23 C           0.0000    0.0000    0.0000 C.ar    1  UNL1        0.0000
     24 C           0.0000    0.0000    0.0000 C.3     1  UNL1        0.0530
     25 C           0.0000    0.0000    0.0000 C.3     1  UNL1       -0.0650
@<TRIPOS>BOND
     1     1     2    1
     2     2     3    1
     3     3     4    2
     4     3     5   am
     5     5     6    1
     6     6     7   ar
     7     7     8   ar
     8     8     9   ar
     9     9    10   ar
    10    10    11   ar
    11     6    11   ar
    12     5    12    1
    13    12    13    1
    14    13    14    1
    15    14    15    1
    16    15    16    1
    17    16    17    1
    18    17    18    1
    19    18    19   ar
    20    19    20   ar
    21    20    21   ar
    22    21    22   ar
    23    22    23   ar
    24    18    23   ar
    25    15    24    1
    26    24    25    1
    27    12    25    1
@<TRIPOS>MOLECULE
activeTOX25254
 24 27 0 0 0
SMALL
MMFF94_CHARGES

@<TRIPOS>ATOM
      1 C           0.0000    0.0000    0.0000 C.3     1  UNL1       -0.6350
      2 C           0.0000    0.0000    0.0000 C.3     1  UNL1        1.1114
      3 C           0.0000    0.0000    0.0000 C.3     1  UNL1       -0.2000
      4 C           0.0000    0.0000    0.0000 C.3     1  UNL1       -0.0650
      5 C           0.0000    0.0000    0.0000 C.3     1  UNL1       -0.0732
      6 C           0.0000    0.0000    0.0000 C.3     1  UNL1        0.0650
      7 C           0.0000    0.0000    0.0000 C.3     1  UNL1       -0.0650
      8 C           0.0000    0.0000    0.0000 C.3     1  UNL1       -0.0650
      9 C           0.0000    0.0000    0.0000 C.2     1  UNL1       -0.0082
     10 C           0.0000    0.0000    0.0000 C.2     1  UNL1       -0.1700
     11 C           0.0000    0.0000    0.0000 C.2     1  UNL1        0.7800
     12 O           0.0000    0.0000    0.0000 O.2     1  UNL1       -0.5700
     13 C           0.0000    0.0000    0.0000 C.3     1  UNL1       -0.1050
     14 C           0.0000    0.0000    0.0000 C.3     1  UNL1       -0.2000
     15 C           0.0000    0.0000    0.0000 C.3     1  UNL1        1.1114
     16 C           0.0000    0.0000    0.0000 C.3     1  UNL1       -0.6350
     17 C           0.0000    0.0000    0.0000 C.3     1  UNL1       -0.0732
     18 C           0.0000    0.0000    0.0000 C.3     1  UNL1       -0.0650
     19 C           0.0000    0.0000    0.0000 C.3     1  UNL1       -0.0650
     20 C           0.0000    0.0000    0.0000 C.3     1  UNL1       -0.0588
     21 C           0.0000    0.0000    0.0000 C.2     1  UNL1        0.6606
     22 O           0.0000    0.0000    0.0000 O.2     1  UNL1       -0.5700
     23 C           0.0000    0.0000    0.0000 C.3     1  UNL1       -0.3490
     24 O           0.0000    0.0000    0.0000 O.3     1  UNL1       -0.7560
@<TRIPOS>BOND
     1     1     2    1
     2     2     3    1
     3     3     4    1
     4     4     5    1
     5     5     6    1
     6     6     7    1
     7     7     8    1
     8     8     9    1
     9     9    10    2
    10    10    11    1
    11    11    12    2
    12    11    13    1
    13    13    14    1
    14    14    15    1
    15     9    15    1
    16     5    15    1
    17    15    16    1
    18     6    17    1
    19     2    17    1
    20    17    18    1
    21    18    19    1
    22    19    20    1
    23     2    20    1
    24    20    21    1
    25    21    22    2
    26    21    23    1
    27    23    24    1
@<TRIPOS>MOLECULE
activeTOX6076
 122 132 0 0 0
SMALL
MMFF94_CHARGES

@<TRIPOS>ATOM
      1 O           0.0000    0.0000    0.0000 O.2     1  UNL1       -0.5700
      2 C           0.0000    0.0000    0.0000 C.2     1  UNL1        0.6338
      3 O           0.0000    0.0000    0.0000 O.3     1  UNL1       -0.1930
      4 C           0.0000    0.0000    0.0000 C.3     1  UNL1       -0.0220
      5 C           0.0000    0.0000    0.0000 C.3     1  UNL1        0.1417
      6 O           0.0000    0.0000    0.0000 O.3     1  UNL1       -0.1534
      7 C           0.0000    0.0000    0.0000 C.3     1  UNL1        0.1534
      8 O           0.0000    0.0000    0.0000 O.3     1  UNL1       -0.2267
      9 C           0.0000    0.0000    0.0000 C.2     1  UNL1        0.6338
     10 O           0.0000    0.0000    0.0000 O.2     1  UNL1       -0.5700
     11 C           0.0000    0.0000    0.0000 C.ar    1  UNL1        0.0862
     12 C           0.0000    0.0000    0.0000 C.ar    1  UNL1        0.0000
     13 C           0.0000    0.0000    0.0000 C.ar    1  UNL1       -0.1710
     14 O           0.0000    0.0000    0.0000 O.3     1  UNL1       -0.8290
     15 C           0.0000    0.0000    0.0000 C.ar    1  UNL1       -0.1710
     16 O           0.0000    0.0000    0.0000 O.3     1  UNL1       -0.8290
     17 C           0.0000    0.0000    0.0000 C.ar    1  UNL1        0.0825
     18 O           0.0000    0.0000    0.0000 O.3     1  UNL1       -0.2325
     19 C           0.0000    0.0000    0.0000 C.2     1  UNL1        0.6338
     20 O           0.0000    0.0000    0.0000 O.2     1  UNL1       -0.5700
     21 C           0.0000    0.0000    0.0000 C.ar    1  UNL1        0.0862
     22 C           0.0000    0.0000    0.0000 C.ar    1  UNL1        0.0000
     23 C           0.0000    0.0000    0.0000 C.ar    1  UNL1       -0.1710
     24 O           0.0000    0.0000    0.0000 O.3     1  UNL1       -0.8290
     25 C           0.0000    0.0000    0.0000 C.ar    1  UNL1       -0.1710
     26 O           0.0000    0.0000    0.0000 O.3     1  UNL1       -0.8290
     27 C           0.0000    0.0000    0.0000 C.ar    1  UNL1       -0.1710
     28 O           0.0000    0.0000    0.0000 O.3     1  UNL1       -0.8290
     29 C           0.0000    0.0000    0.0000 C.ar    1  UNL1        0.0000
     30 C           0.0000    0.0000    0.0000 C.ar    1  UNL1        0.0000
     31 C           0.0000    0.0000    0.0000 C.3     1  UNL1        0.0767
     32 O           0.0000    0.0000    0.0000 O.3     1  UNL1       -0.2267
     33 C           0.0000    0.0000    0.0000 C.2     1  UNL1        0.6338
     34 O           0.0000    0.0000    0.0000 O.2     1  UNL1       -0.5700
     35 C           0.0000    0.0000    0.0000 C.ar    1  UNL1        0.0862
     36 C           0.0000    0.0000    0.0000 C.ar    1  UNL1        0.0000
     37 C           0.0000    0.0000    0.0000 C.ar    1  UNL1       -0.1710
     38 O           0.0000    0.0000    0.0000 O.3     1  UNL1       -0.8290
     39 C           0.0000    0.0000    0.0000 C.ar    1  UNL1       -0.1710
     40 O           0.0000    0.0000    0.0000 O.3     1  UNL1       -0.8290
     41 C           0.0000    0.0000    0.0000 C.ar    1  UNL1        0.0825
     42 O           0.0000    0.0000    0.0000 O.3     1  UNL1       -0.2325
     43 C           0.0000    0.0000    0.0000 C.2     1  UNL1        0.6338
     44 O           0.0000    0.0000    0.0000 O.2     1  UNL1       -0.5700
     45 C           0.0000    0.0000    0.0000 C.ar    1  UNL1        0.0862
     46 C           0.0000    0.0000    0.0000 C.ar    1  UNL1        0.0000
     47 C           0.0000    0.0000    0.0000 C.ar    1  UNL1       -0.1710
     48 O           0.0000    0.0000    0.0000 O.3     1  UNL1       -0.8290
     49 C           0.0000    0.0000    0.0000 C.ar    1  UNL1       -0.1710
     50 O           0.0000    0.0000    0.0000 O.3     1  UNL1       -0.8290
     51 C           0.0000    0.0000    0.0000 C.ar    1  UNL1       -0.1710
     52 O           0.0000    0.0000    0.0000 O.3     1  UNL1       -0.8290
     53 C           0.0000    0.0000    0.0000 C.ar    1  UNL1        0.0000
     54 C           0.0000    0.0000    0.0000 C.ar    1  UNL1        0.0000
     55 C           0.0000    0.0000    0.0000 C.3     1  UNL1        0.0767
     56 O           0.0000    0.0000    0.0000 O.3     1  UNL1       -0.2267
     57 C           0.0000    0.0000    0.0000 C.2     1  UNL1        0.6338
     58 O           0.0000    0.0000    0.0000 O.2     1  UNL1       -0.5700
     59 C           0.0000    0.0000    0.0000 C.ar    1  UNL1        0.0862
     60 C           0.0000    0.0000    0.0000 C.ar    1  UNL1        0.0000
     61 C           0.0000    0.0000    0.0000 C.ar    1  UNL1       -0.1710
     62 O           0.0000    0.0000    0.0000 O.3     1  UNL1       -0.8290
     63 C           0.0000    0.0000    0.0000 C.ar    1  UNL1       -0.1710
     64 O           0.0000    0.0000    0.0000 O.3     1  UNL1       -0.8290
     65 C           0.0000    0.0000    0.0000 C.ar    1  UNL1        0.0825
     66 O           0.0000    0.0000    0.0000 O.3     1  UNL1       -0.2325
     67 C           0.0000    0.0000    0.0000 C.2     1  UNL1        0.6338
     68 O           0.0000    0.0000    0.0000 O.2     1  UNL1       -0.5700
     69 C           0.0000    0.0000    0.0000 C.ar    1  UNL1        0.0862
     70 C           0.0000    0.0000    0.0000 C.ar    1  UNL1        0.0000
     71 C           0.0000    0.0000    0.0000 C.ar    1  UNL1       -0.1710
     72 O           0.0000    0.0000    0.0000 O.3     1  UNL1       -0.8290
     73 C           0.0000    0.0000    0.0000 C.ar    1  UNL1       -0.1710
     74 O           0.0000    0.0000    0.0000 O.3     1  UNL1       -0.8290
     75 C           0.0000    0.0000    0.0000 C.ar    1  UNL1       -0.1710
     76 O           0.0000    0.0000    0.0000 O.3     1  UNL1       -0.8290
     77 C           0.0000    0.0000    0.0000 C.ar    1  UNL1        0.0000
     78 C           0.0000    0.0000    0.0000 C.ar    1  UNL1        0.0000
     79 C           0.0000    0.0000    0.0000 C.3     1  UNL1        0.0767
     80 O           0.0000    0.0000    0.0000 O.3     1  UNL1       -0.2267
     81 C           0.0000    0.0000    0.0000 C.2     1  UNL1        0.6338
     82 O           0.0000    0.0000    0.0000 O.2     1  UNL1       -0.5700
     83 C           0.0000    0.0000    0.0000 C.ar    1  UNL1        0.0862
     84 C           0.0000    0.0000    0.0000 C.ar    1  UNL1        0.0000
     85 C           0.0000    0.0000    0.0000 C.ar    1  UNL1       -0.1710
     86 O           0.0000    0.0000    0.0000 O.3     1  UNL1       -0.8290
     87 C           0.0000    0.0000    0.0000 C.ar    1  UNL1       -0.1710
     88 O           0.0000    0.0000    0.0000 O.3     1  UNL1       -0.8290
     89 C           0.0000    0.0000    0.0000 C.ar    1  UNL1        0.0825
     90 O           0.0000    0.0000    0.0000 O.3     1  UNL1       -0.2325
     91 C           0.0000    0.0000    0.0000 C.2     1  UNL1        0.6338
     92 O           0.0000    0.0000    0.0000 O.2     1  UNL1       -0.5700
     93 C           0.0000    0.0000    0.0000 C.ar    1  UNL1        0.0862
     94 C           0.0000    0.0000    0.0000 C.ar    1  UNL1        0.0000
     95 C           0.0000    0.0000    0.0000 C.ar    1  UNL1       -0.1710
     96 O           0.0000    0.0000    0.0000 O.3     1  UNL1       -0.8290
     97 C           0.0000    0.0000    0.0000 C.ar    1  UNL1       -0.1710
     98 O           0.0000    0.0000    0.0000 O.3     1  UNL1       -0.8290
     99 C           0.0000    0.0000    0.0000 C.ar    1  UNL1       -0.1710
    100 O           0.0000    0.0000    0.0000 O.3     1  UNL1       -0.8290
    101 C           0.0000    0.0000    0.0000 C.ar    1  UNL1        0.0000
    102 C           0.0000    0.0000    0.0000 C.ar    1  UNL1        0.0000
    103 C           0.0000    0.0000    0.0000 C.ar    1  UNL1        0.0862
    104 C           0.0000    0.0000    0.0000 C.ar    1  UNL1        0.0000
    105 C           0.0000    0.0000    0.0000 C.ar    1  UNL1       -0.1710
    106 O           0.0000    0.0000    0.0000 O.3     1  UNL1       -0.8290
    107 C           0.0000    0.0000    0.0000 C.ar    1  UNL1       -0.1710
    108 O           0.0000    0.0000    0.0000 O.3     1  UNL1       -0.8290
    109 C           0.0000    0.0000    0.0000 C.ar    1  UNL1        0.0825
    110 O           0.0000    0.0000    0.0000 O.3     1  UNL1       -0.2325
    111 C           0.0000    0.0000    0.0000 C.2     1  UNL1        0.6338
    112 O           0.0000    0.0000    0.0000 O.2     1  UNL1       -0.5700
    113 C           0.0000    0.0000    0.0000 C.ar    1  UNL1        0.0862
    114 C           0.0000    0.0000    0.0000 C.ar    1  UNL1        0.0000
    115 C           0.0000    0.0000    0.0000 C.ar    1  UNL1       -0.1710
    116 O           0.0000    0.0000    0.0000 O.3     1  UNL1       -0.8290
    117 C           0.0000    0.0000    0.0000 C.ar    1  UNL1       -0.1710
    118 O           0.0000    0.0000    0.0000 O.3     1  UNL1       -0.8290
    119 C           0.0000    0.0000    0.0000 C.ar    1  UNL1       -0.1710
    120 O           0.0000    0.0000    0.0000 O.3     1  UNL1       -0.8290
    121 C           0.0000    0.0000    0.0000 C.ar    1  UNL1        0.0000
    122 C           0.0000    0.0000    0.0000 C.ar    1  UNL1        0.0000
@<TRIPOS>BOND
     1     1     2    2
     2     2     3    1
     3     3     4    1
     4     4     5    1
     5     5     6    1
     6     6     7    1
     7     7     8    1
     8     8     9    1
     9     9    10    2
    10     9    11    1
    11    11    12   ar
    12    12    13   ar
    13    13    14    1
    14    13    15   ar
    15    15    16    1
    16    15    17   ar
    17    17    18    1
    18    18    19    1
    19    19    20    2
    20    19    21    1
    21    21    22   ar
    22    22    23   ar
    23    23    24    1
    24    23    25   ar
    25    25    26    1
    26    25    27   ar
    27    27    28    1
    28    27    29   ar
    29    21    29   ar
    30    17    30   ar
    31    11    30   ar
    32     7    31    1
    33    31    32    1
    34    32    33    1
    35    33    34    2
    36    33    35    1
    37    35    36   ar
    38    36    37   ar
    39    37    38    1
    40    37    39   ar
    41    39    40    1
    42    39    41   ar
    43    41    42    1
    44    42    43    1
    45    43    44    2
    46    43    45    1
    47    45    46   ar
    48    46    47   ar
    49    47    48    1
    50    47    49   ar
    51    49    50    1
    52    49    51   ar
    53    51    52    1
    54    51    53   ar
    55    45    53   ar
    56    41    54   ar
    57    35    54   ar
    58    31    55    1
    59    55    56    1
    60    56    57    1
    61    57    58    2
    62    57    59    1
    63    59    60   ar
    64    60    61   ar
    65    61    62    1
    66    61    63   ar
    67    63    64    1
    68    63    65   ar
    69    65    66    1
    70    66    67    1
    71    67    68    2
    72    67    69    1
    73    69    70   ar
    74    70    71   ar
    75    71    72    1
    76    71    73   ar
    77    73    74    1
    78    73    75   ar
    79    75    76    1
    80    75    77   ar
    81    69    77   ar
    82    65    78   ar
    83    59    78   ar
    84    55    79    1
    85     5    79    1
    86    79    80    1
    87    80    81    1
    88    81    82    2
    89    81    83    1
    90    83    84   ar
    91    84    85   ar
    92    85    86    1
    93    85    87   ar
    94    87    88    1
    95    87    89   ar
    96    89    90    1
    97    90    91    1
    98    91    92    2
    99    91    93    1
   100    93    94   ar
   101    94    95   ar
   102    95    96    1
   103    95    97   ar
   104    97    98    1
   105    97    99   ar
   106    99   100    1
   107    99   101   ar
   108    93   101   ar
   109    89   102   ar
   110    83   102   ar
   111     2   103    1
   112   103   104   ar
   113   104   105   ar
   114   105   106    1
   115   105   107   ar
   116   107   108    1
   117   107   109   ar
   118   109   110    1
   119   110   111    1
   120   111   112    2
   121   111   113    1
   122   113   114   ar
   123   114   115   ar
   124   115   116    1
   125   115   117   ar
   126   117   118    1
   127   117   119   ar
   128   119   120    1
   129   119   121   ar
   130   113   121   ar
   131   109   122   ar
   132   103   122   ar
@<TRIPOS>MOLECULE
activeTOX25086
 24 27 0 0 0
SMALL
MMFF94_CHARGES

@<TRIPOS>ATOM
      1 C           0.0000    0.0000    0.0000 C.3     1  UNL1       -0.6350
      2 C           0.0000    0.0000    0.0000 C.3     1  UNL1        1.1114
      3 C           0.0000    0.0000    0.0000 C.3     1  UNL1       -0.2000
      4 C           0.0000    0.0000    0.0000 C.3     1  UNL1       -0.0650
      5 C           0.0000    0.0000    0.0000 C.3     1  UNL1        0.0366
      6 C           0.0000    0.0000    0.0000 C.ar    1  UNL1        0.0284
      7 C           0.0000    0.0000    0.0000 C.ar    1  UNL1        0.0000
      8 C           0.0000    0.0000    0.0000 C.ar    1  UNL1        0.0000
      9 C           0.0000    0.0000    0.0000 C.ar    1  UNL1       -0.1710
     10 O           0.0000    0.0000    0.0000 O.3     1  UNL1       -0.8290
     11 C           0.0000    0.0000    0.0000 C.ar    1  UNL1        0.0000
     12 C           0.0000    0.0000    0.0000 C.ar    1  UNL1        0.0730
     13 C           0.0000    0.0000    0.0000 C.3     1  UNL1       -0.0730
     14 C           0.0000    0.0000    0.0000 C.3     1  UNL1       -0.0650
     15 C           0.0000    0.0000    0.0000 C.3     1  UNL1        0.0650
     16 C           0.0000    0.0000    0.0000 C.3     1  UNL1       -0.0732
     17 C           0.0000    0.0000    0.0000 C.3     1  UNL1       -0.0650
     18 C           0.0000    0.0000    0.0000 C.3     1  UNL1       -0.0650
     19 C           0.0000    0.0000    0.0000 C.3     1  UNL1        0.0035
     20 O           0.0000    0.0000    0.0000 O.3     1  UNL1       -0.3479
     21 P           0.0000    0.0000    0.0000 P.3     1  UNL1        1.3712
     22 O           0.0000    0.0000    0.0000 O.2     1  UNL1       -1.0333
     23 O           0.0000    0.0000    0.0000 O.3     1  UNL1       -1.0333
     24 O           0.0000    0.0000    0.0000 O.3     1  UNL1       -1.0333
@<TRIPOS>BOND
     1     1     2    1
     2     2     3    1
     3     3     4    1
     4     4     5    1
     5     5     6    1
     6     6     7   ar
     7     7     8   ar
     8     8     9   ar
     9     9    10    1
    10     9    11   ar
    11    11    12   ar
    12     6    12   ar
    13    12    13    1
    14    13    14    1
    15    14    15    1
    16     5    15    1
    17    15    16    1
    18     2    16    1
    19    16    17    1
    20    17    18    1
    21    18    19    1
    22     2    19    1
    23    19    20    1
    24    20    21    1
    25    21    22    2
    26    21    23    1
    27    21    24    1
@<TRIPOS>MOLECULE
activeTOX3540
 13 13 0 0 0
SMALL
MMFF94_CHARGES

@<TRIPOS>ATOM
      1 C           0.0000    0.0000    0.0000 C.3     1  UNL1       -0.3910
      2 N           0.0000    0.0000    0.0000 N.am    1  UNL1        0.7220
      3 C           0.0000    0.0000    0.0000 C.3     1  UNL1       -0.3910
      4 C           0.0000    0.0000    0.0000 C.2     1  UNL1        0.7800
      5 O           0.0000    0.0000    0.0000 O.2     1  UNL1       -0.5700
      6 O           0.0000    0.0000    0.0000 O.3     1  UNL1       -0.2325
      7 C           0.0000    0.0000    0.0000 C.ar    1  UNL1        0.0825
      8 C           0.0000    0.0000    0.0000 C.ar    1  UNL1        0.0000
      9 C           0.0000    0.0000    0.0000 C.ar    1  UNL1        0.0000
     10 C           0.0000    0.0000    0.0000 C.ar    1  UNL1        0.3610
     11 N           0.0000    0.0000    0.0000 N.ar    1  UNL1        0.4250
     12 C           0.0000    0.0000    0.0000 C.3     1  UNL1       -0.1470
     13 C           0.0000    0.0000    0.0000 C.ar    1  UNL1        0.3610
@<TRIPOS>BOND
     1     1     2    1
     2     2     3    1
     3     2     4   am
     4     4     5    2
     5     4     6    1
     6     6     7    1
     7     7     8   ar
     8     8     9   ar
     9     9    10   ar
    10    10    11   ar
    11    11    12    1
    12    11    13   ar
    13     7    13   ar
@<TRIPOS>MOLECULE
activeTOX5861
 18 19 0 0 0
SMALL
MMFF94_CHARGES

@<TRIPOS>ATOM
      1 N           0.0000    0.0000    0.0000 N.pl3   1  UNL1       -0.1260
      2 C           0.0000    0.0000    0.0000 C.ar    1  UNL1        0.1260
      3 C           0.0000    0.0000    0.0000 C.ar    1  UNL1        0.0000
      4 C           0.0000    0.0000    0.0000 C.ar    1  UNL1        0.0000
      5 C           0.0000    0.0000    0.0000 C.ar    1  UNL1        0.0000
      6 C           0.0000    0.0000    0.0000 C.ar    1  UNL1        0.0000
      7 C           0.0000    0.0000    0.0000 C.ar    1  UNL1        0.0862
      8 C           0.0000    0.0000    0.0000 C.2     1  UNL1        0.6338
      9 O           0.0000    0.0000    0.0000 O.2     1  UNL1       -0.5700
     10 O           0.0000    0.0000    0.0000 O.3     1  UNL1       -0.1930
     11 C           0.0000    0.0000    0.0000 C.3     1  UNL1        0.0430
     12 C           0.0000    0.0000    0.0000 C.3     1  UNL1       -0.0730
     13 C           0.0000    0.0000    0.0000 C.ar    1  UNL1        0.0730
     14 C           0.0000    0.0000    0.0000 C.ar    1  UNL1        0.0000
     15 C           0.0000    0.0000    0.0000 C.ar    1  UNL1        0.0000
     16 C           0.0000    0.0000    0.0000 C.ar    1  UNL1        0.0000
     17 C           0.0000    0.0000    0.0000 C.ar    1  UNL1        0.0000
     18 C           0.0000    0.0000    0.0000 C.ar    1  UNL1        0.0000
@<TRIPOS>BOND
     1     1     2    1
     2     2     3   ar
     3     3     4   ar
     4     4     5   ar
     5     5     6   ar
     6     6     7   ar
     7     2     7   ar
     8     7     8    1
     9     8     9    2
    10     8    10    1
    11    10    11    1
    12    11    12    1
    13    12    13    1
    14    13    14   ar
    15    14    15   ar
    16    15    16   ar
    17    16    17   ar
    18    17    18   ar
    19    13    18   ar
@<TRIPOS>MOLECULE
activeTOX28593
 33 36 0 0 0
SMALL
MMFF94_CHARGES

@<TRIPOS>ATOM
      1 C           0.0000    0.0000    0.0000 C.3     1  UNL1       -0.6350
      2 C           0.0000    0.0000    0.0000 C.3     1  UNL1        1.1114
      3 C           0.0000    0.0000    0.0000 C.3     1  UNL1       -0.2000
      4 C           0.0000    0.0000    0.0000 C.3     1  UNL1       -0.0650
      5 C           0.0000    0.0000    0.0000 C.3     1  UNL1        0.0366
      6 C           0.0000    0.0000    0.0000 C.ar    1  UNL1        0.0284
      7 C           0.0000    0.0000    0.0000 C.ar    1  UNL1        0.0000
      8 C           0.0000    0.0000    0.0000 C.ar    1  UNL1        0.0000
      9 C           0.0000    0.0000    0.0000 C.ar    1  UNL1        0.0825
     10 O           0.0000    0.0000    0.0000 O.3     1  UNL1       -0.2325
     11 C           0.0000    0.0000    0.0000 C.2     1  UNL1        0.7800
     12 O           0.0000    0.0000    0.0000 O.2     1  UNL1       -0.5700
     13 N           0.0000    0.0000    0.0000 N.am    1  UNL1       -0.1480
     14 C           0.0000    0.0000    0.0000 C.3     1  UNL1        0.0440
     15 C           0.0000    0.0000    0.0000 C.3     1  UNL1        0.1040
     16 CL          0.0000    0.0000    0.0000 Cl      1  UNL1       -0.1040
     17 C           0.0000    0.0000    0.0000 C.3     1  UNL1        0.0440
     18 C           0.0000    0.0000    0.0000 C.3     1  UNL1        0.1040
     19 CL          0.0000    0.0000    0.0000 Cl      1  UNL1       -0.1040
     20 C           0.0000    0.0000    0.0000 C.ar    1  UNL1        0.0000
     21 C           0.0000    0.0000    0.0000 C.ar    1  UNL1        0.0730
     22 C           0.0000    0.0000    0.0000 C.3     1  UNL1       -0.0730
     23 C           0.0000    0.0000    0.0000 C.3     1  UNL1       -0.0650
     24 C           0.0000    0.0000    0.0000 C.3     1  UNL1        0.0650
     25 C           0.0000    0.0000    0.0000 C.3     1  UNL1       -0.0732
     26 C           0.0000    0.0000    0.0000 C.3     1  UNL1       -0.0650
     27 C           0.0000    0.0000    0.0000 C.3     1  UNL1       -0.0650
     28 C           0.0000    0.0000    0.0000 C.3     1  UNL1        0.0035
     29 O           0.0000    0.0000    0.0000 O.3     1  UNL1       -0.3479
     30 P           0.0000    0.0000    0.0000 P.3     1  UNL1        1.3712
     31 O           0.0000    0.0000    0.0000 O.2     1  UNL1       -1.0333
     32 O           0.0000    0.0000    0.0000 O.3     1  UNL1       -1.0333
     33 O           0.0000    0.0000    0.0000 O.3     1  UNL1       -1.0333
@<TRIPOS>BOND
     1     1     2    1
     2     2     3    1
     3     3     4    1
     4     4     5    1
     5     5     6    1
     6     6     7   ar
     7     7     8   ar
     8     8     9   ar
     9     9    10    1
    10    10    11    1
    11    11    12    2
    12    11    13   am
    13    13    14    1
    14    14    15    1
    15    15    16    1
    16    13    17    1
    17    17    18    1
    18    18    19    1
    19     9    20   ar
    20    20    21   ar
    21     6    21   ar
    22    21    22    1
    23    22    23    1
    24    23    24    1
    25     5    24    1
    26    24    25    1
    27     2    25    1
    28    25    26    1
    29    26    27    1
    30    27    28    1
    31     2    28    1
    32    28    29    1
    33    29    30    1
    34    30    31    2
    35    30    32    1
    36    30    33    1
@<TRIPOS>MOLECULE
activeTOX5050
 7 6 0 0 0
SMALL
MMFF94_CHARGES

@<TRIPOS>ATOM
      1 N           0.0000    0.0000    0.0000 N.3     1  UNL1       -0.0530
      2 C           0.0000    0.0000    0.0000 C.3     1  UNL1        0.0530
      3 C           0.0000    0.0000    0.0000 C.3     1  UNL1       -0.3250
      4 N           0.0000    0.0000    0.0000 N.3     1  UNL1       -0.3500
      5 C           0.0000    0.0000    0.0000 C.3     1  UNL1       -0.3250
      6 C           0.0000    0.0000    0.0000 C.3     1  UNL1        0.0530
      7 N           0.0000    0.0000    0.0000 N.3     1  UNL1       -0.0530
@<TRIPOS>BOND
     1     1     2    1
     2     2     3    1
     3     3     4    1
     4     4     5    1
     5     5     6    1
     6     6     7    1
@<TRIPOS>MOLECULE
activeTOX38
 15 15 0 0 0
SMALL
MMFF94_CHARGES

@<TRIPOS>ATOM
      1 C           0.0000    0.0000    0.0000 C.2     1  UNL1       -0.4350
      2 C           0.0000    0.0000    0.0000 C.2     1  UNL1        0.4350
      3 C           0.0000    0.0000    0.0000 C.3     1  UNL1        0.0430
      4 O           0.0000    0.0000    0.0000 O.3     1  UNL1       -0.1255
      5 C           0.0000    0.0000    0.0000 C.ar    1  UNL1        0.0825
      6 C           0.0000    0.0000    0.0000 C.ar    1  UNL1        0.0000
      7 C           0.0000    0.0000    0.0000 C.ar    1  UNL1        0.0000
      8 C           0.0000    0.0000    0.0000 C.ar    1  UNL1        0.0730
      9 C           0.0000    0.0000    0.0000 C.3     1  UNL1       -0.3250
     10 C           0.0000    0.0000    0.0000 C.2     1  UNL1        1.0520
     11 O           0.0000    0.0000    0.0000 O.co2   1  UNL1       -0.9000
     12 O           0.0000    0.0000    0.0000 O.co2   1  UNL1       -0.9000
     13 C           0.0000    0.0000    0.0000 C.ar    1  UNL1        0.0000
     14 C           0.0000    0.0000    0.0000 C.ar    1  UNL1        0.1770
     15 CL          0.0000    0.0000    0.0000 Cl      1  UNL1       -0.1770
@<TRIPOS>BOND
     1     1     2    2
     2     2     3    1
     3     3     4    1
     4     4     5    1
     5     5     6   ar
     6     6     7   ar
     7     7     8   ar
     8     8     9    1
     9     9    10    1
    10    10    11   ar
    11    10    12   ar
    12     8    13   ar
    13    13    14   ar
    14     5    14   ar
    15    14    15    1
@<TRIPOS>MOLECULE
activeTOX708
 11 11 0 0 0
SMALL
MMFF94_CHARGES

@<TRIPOS>ATOM
      1 N           0.0000    0.0000    0.0000 N.3     1  UNL1       -0.5430
      2 N           0.0000    0.0000    0.0000 N.pl3   1  UNL1       -0.2050
      3 C           0.0000    0.0000    0.0000 C.ar    1  UNL1       -0.2520
      4 C           0.0000    0.0000    0.0000 C.ar    1  UNL1        0.0000
      5 C           0.0000    0.0000    0.0000 C.ar    1  UNL1        0.0000
      6 C           0.0000    0.0000    0.0000 C.ar    1  UNL1       -0.1790
      7 C           0.0000    0.0000    0.0000 C.2     1  UNL1        0.9790
      8 O           0.0000    0.0000    0.0000 O.co2   1  UNL1       -0.9000
      9 O           0.0000    0.0000    0.0000 O.co2   1  UNL1       -0.9000
     10 C           0.0000    0.0000    0.0000 C.ar    1  UNL1        0.0000
     11 C           0.0000    0.0000    0.0000 C.ar    1  UNL1        0.0000
@<TRIPOS>BOND
     1     1     2    1
     2     2     3    1
     3     3     4   ar
     4     4     5   ar
     5     5     6   ar
     6     6     7    1
     7     7     8   ar
     8     7     9   ar
     9     6    10   ar
    10    10    11   ar
    11     3    11   ar
@<TRIPOS>MOLECULE
activeTOX838
 18 19 0 0 0
SMALL
MMFF94_CHARGES

@<TRIPOS>ATOM
      1 C           0.0000    0.0000    0.0000 C.3     1  UNL1       -0.5080
      2 C           0.0000    0.0000    0.0000 C.ar    1  UNL1        0.5080
      3 C           0.0000    0.0000    0.0000 C.ar    1  UNL1        0.0000
      4 C           0.0000    0.0000    0.0000 C.ar    1  UNL1        0.0000
      5 C           0.0000    0.0000    0.0000 C.ar    1  UNL1        0.0000
      6 C           0.0000    0.0000    0.0000 C.ar    1  UNL1        0.1790
      7 N           0.0000    0.0000    0.0000 N.2     1  UNL1       -0.1790
      8 N           0.0000    0.0000    0.0000 N.2     1  UNL1       -0.1790
      9 C           0.0000    0.0000    0.0000 C.ar    1  UNL1        0.1790
     10 C           0.0000    0.0000    0.0000 C.ar    1  UNL1        0.0000
     11 C           0.0000    0.0000    0.0000 C.ar    1  UNL1        0.0000
     12 C           0.0000    0.0000    0.0000 C.ar    1  UNL1        0.1000
     13 N           0.0000    0.0000    0.0000 N.pl3   1  UNL1        0.6420
     14 C           0.0000    0.0000    0.0000 C.3     1  UNL1       -0.3710
     15 C           0.0000    0.0000    0.0000 C.3     1  UNL1       -0.3710
     16 C           0.0000    0.0000    0.0000 C.ar    1  UNL1        0.0000
     17 C           0.0000    0.0000    0.0000 C.ar    1  UNL1        0.0000
     18 C           0.0000    0.0000    0.0000 C.ar    1  UNL1        0.0000
@<TRIPOS>BOND
     1     1     2    1
     2     2     3   ar
     3     3     4   ar
     4     4     5   ar
     5     5     6   ar
     6     6     7    1
     7     7     8    2
     8     8     9    1
     9     9    10   ar
    10    10    11   ar
    11    11    12   ar
    12    12    13    1
    13    13    14    1
    14    13    15    1
    15    12    16   ar
    16    16    17   ar
    17     9    17   ar
    18     6    18   ar
    19     2    18   ar
