     12 N           0.0000    0.0000    0.0000 N.am    1  UNL1       -0.6610
     13 C           0.0000    0.0000    0.0000 C.2     1  UNL1        0.2150
     14 S           0.0000    0.0000    0.0000 S.3     1  UNL1       -0.9850
     15 N           0.0000    0.0000    0.0000 N.am    1  UNL1       -0.5600
     16 C           0.0000    0.0000    0.0000 C.2     1  UNL1        0.2890
     17 O           0.0000    0.0000    0.0000 O.2     1  UNL1       -0.5700
@<TRIPOS>BOND
     1     1     2    2
     2     2     3    1
     3     3     4    1
     4     4     5    1
     5     5     6    1
     6     5     7    1
     7     7     8    1
     8     8     9    1
     9     4    10    1
    10    10    11    2
    11    10    12    1
    12    12    13    2
    13    13    14    1
    14    13    15    1
    15    15    16   am
    16     4    16    1
    17    16    17    2
@<TRIPOS>MOLECULE
TOX298
 7 7 0 0 0
SMALL
MMFF94_CHARGES

@<TRIPOS>ATOM
      1 CL          0.0000    0.0000    0.0000 Cl      1  UNL1       -0.1770
      2 C           0.0000    0.0000    0.0000 C.ar    1  UNL1        0.1770
      3 C           0.0000    0.0000    0.0000 C.ar    1  UNL1        0.0000
      4 C           0.0000    0.0000    0.0000 C.ar    1  UNL1        0.0000
      5 C           0.0000    0.0000    0.0000 C.ar    1  UNL1        0.0000
      6 C           0.0000    0.0000    0.0000 C.ar    1  UNL1        0.0000
      7 C           0.0000    0.0000    0.0000 C.ar    1  UNL1        0.0000
@<TRIPOS>BOND
     1     1     2    1
     2     2     3   ar
     3     3     4   ar
     4     4     5   ar
     5     5     6   ar
     6     6     7   ar
     7     2     7   ar
@<TRIPOS>MOLECULE
TOX299
 21 22 0 0 0
SMALL
MMFF94_CHARGES

@<TRIPOS>ATOM
      1 C           0.0000    0.0000    0.0000 C.3     1  UNL1       -0.4350
      2 C           0.0000    0.0000    0.0000 C.3     1  UNL1        0.4780
      3 O           0.0000    0.0000    0.0000 O.3     1  UNL1       -0.1930
      4 C           0.0000    0.0000    0.0000 C.2     1  UNL1        0.6590
      5 O           0.0000    0.0000    0.0000 O.2     1  UNL1       -0.5700
      6 C           0.0000    0.0000    0.0000 C.3     1  UNL1        0.2754
      7 O           0.0000    0.0000    0.0000 O.3     1  UNL1       -0.9274
      8 C           0.0000    0.0000    0.0000 C.ar    1  UNL1       -0.1435
      9 C           0.0000    0.0000    0.0000 C.ar    1  UNL1        0.0000
     10 C           0.0000    0.0000    0.0000 C.ar    1  UNL1        0.0000
     11 C           0.0000    0.0000    0.0000 C.ar    1  UNL1        0.1770
     12 CL          0.0000    0.0000    0.0000 Cl      1  UNL1       -0.1770
     13 C           0.0000    0.0000    0.0000 C.ar    1  UNL1        0.0000
     14 C           0.0000    0.0000    0.0000 C.ar    1  UNL1        0.0000
     15 C           0.0000    0.0000    0.0000 C.ar    1  UNL1       -0.1435
     16 C           0.0000    0.0000    0.0000 C.ar    1  UNL1        0.0000
     17 C           0.0000    0.0000    0.0000 C.ar    1  UNL1        0.0000
     18 C           0.0000    0.0000    0.0000 C.ar    1  UNL1        0.1770
     19 CL          0.0000    0.0000    0.0000 Cl      1  UNL1       -0.1770
     20 C           0.0000    0.0000    0.0000 C.ar    1  UNL1        0.0000
     21 C           0.0000    0.0000    0.0000 C.ar    1  UNL1        0.0000
@<TRIPOS>BOND
     1     1     2    1
     2     2     3    1
     3     3     4    1
     4     4     5    2
     5     4     6    1
     6     6     7    1
     7     6     8    1
     8     8     9   ar
     9     9    10   ar
    10    10    11   ar
    11    11    12    1
    12    11    13   ar
    13    13    14   ar
    14     8    14   ar
    15     6    15    1
    16    15    16   ar
    17    16    17   ar
    18    17    18   ar
    19    18    19    1
    20    18    20   ar
    21    20    21   ar
    22    15    21   ar
@<TRIPOS>MOLECULE
TOX3395
 35 35 0 0 0
SMALL
MMFF94_CHARGES

@<TRIPOS>ATOM
      1 C           0.0000    0.0000    0.0000 C.3     1  UNL1       -0.4350
      2 C           0.0000    0.0000    0.0000 C.3     1  UNL1        0.4350
      3 C           0.0000    0.0000    0.0000 C.3     1  UNL1        0.0000
      4 C           0.0000    0.0000    0.0000 C.3     1  UNL1        0.0000
      5 C           0.0000    0.0000    0.0000 C.3     1  UNL1        0.0000
      6 C           0.0000    0.0000    0.0000 C.3     1  UNL1        0.0000
      7 C           0.0000    0.0000    0.0000 C.3     1  UNL1        0.0000
      8 C           0.0000    0.0000    0.0000 C.3     1  UNL1        0.0000
      9 C           0.0000    0.0000    0.0000 C.3     1  UNL1        0.0000
     10 C           0.0000    0.0000    0.0000 C.3     1  UNL1        0.0000
     11 C           0.0000    0.0000    0.0000 C.3     1  UNL1       -0.0650
     12 C           0.0000    0.0000    0.0000 C.3     1  UNL1        0.2067
     13 C           0.0000    0.0000    0.0000 C.3     1  UNL1       -0.1300
     14 C           0.0000    0.0000    0.0000 C.3     1  UNL1        0.1417
     15 O           0.0000    0.0000    0.0000 O.3     1  UNL1       -0.2267
     16 C           0.0000    0.0000    0.0000 C.2     1  UNL1        0.7056
     17 O           0.0000    0.0000    0.0000 O.2     1  UNL1       -0.5700
     18 C           0.0000    0.0000    0.0000 C.3     1  UNL1        0.0794
     19 C           0.0000    0.0000    0.0000 C.3     1  UNL1       -0.0650
     20 C           0.0000    0.0000    0.0000 C.3     1  UNL1        0.0000
     21 C           0.0000    0.0000    0.0000 C.3     1  UNL1        0.0000
     22 C           0.0000    0.0000    0.0000 C.3     1  UNL1        0.0000
     23 C           0.0000    0.0000    0.0000 C.3     1  UNL1        0.4350
     24 C           0.0000    0.0000    0.0000 C.3     1  UNL1       -0.4350
     25 O           0.0000    0.0000    0.0000 O.3     1  UNL1       -0.2267
     26 C           0.0000    0.0000    0.0000 C.2     1  UNL1        0.7056
     27 O           0.0000    0.0000    0.0000 O.2     1  UNL1       -0.5700
     28 C           0.0000    0.0000    0.0000 C.3     1  UNL1       -0.1206
     29 C           0.0000    0.0000    0.0000 C.3     1  UNL1       -0.1300
     30 C           0.0000    0.0000    0.0000 C.3     1  UNL1        1.0650
     31 C           0.0000    0.0000    0.0000 C.3     1  UNL1       -0.5000
     32 C           0.0000    0.0000    0.0000 C.3     1  UNL1       -0.5000
     33 N           0.0000    0.0000    0.0000 N.am    1  UNL1       -0.4750
     34 C           0.0000    0.0000    0.0000 C.2     1  UNL1        0.1620
     35 O           0.0000    0.0000    0.0000 O.2     1  UNL1       -0.4870
@<TRIPOS>BOND
     1     1     2    1
     2     2     3    1
     3     3     4    1
     4     4     5    1
     5     5     6    1
     6     6     7    1
     7     7     8    1
     8     8     9    1
     9     9    10    1
    10    10    11    1
    11    11    12    1
    12    12    13    1
    13    13    14    1
    14    14    15    1
    15    15    16    1
    16    16    17    2
    17    16    18    1
    18    14    18    1
    19    18    19    1
    20    19    20    1
    21    20    21    1
    22    21    22    1
    23    22    23    1
    24    23    24    1
    25    12    25    1
    26    25    26    1
    27    26    27    2
    28    26    28    1
    29    28    29    1
    30    29    30    1
    31    30    31    1
    32    30    32    1
    33    28    33    1
    34    33    34   am
    35    34    35    2
@<TRIPOS>MOLECULE
TOX569
 5 5 0 0 0
SMALL
MMFF94_CHARGES

@<TRIPOS>ATOM
      1 C           0.0000    0.0000    0.0000 C.3     1  UNL1       -0.4350
      2 C           0.0000    0.0000    0.0000 C.3     1  UNL1        0.3700
      3 C           0.0000    0.0000    0.0000 C.3     1  UNL1        0.2067
      4 C           0.0000    0.0000    0.0000 C.3     1  UNL1       -0.0220
      5 O           0.0000    0.0000    0.0000 O.3     1  UNL1       -0.1197
@<TRIPOS>BOND
     1     1     2    1
     2     2     3    1
     3     3     4    1
     4     4     5    1
     5     3     5    1
@<TRIPOS>MOLECULE
TOX3393
 22 25 0 0 0
SMALL
MMFF94_CHARGES

@<TRIPOS>ATOM
      1 C           0.0000    0.0000    0.0000 C.3     1  UNL1       -0.4550
      2 C           0.0000    0.0000    0.0000 C.ar    1  UNL1        0.6415
      3 N           0.0000    0.0000    0.0000 N.ar    1  UNL1       -0.5653
      4 C           0.0000    0.0000    0.0000 C.ar    1  UNL1        0.2272
      5 C           0.0000    0.0000    0.0000 C.ar    1  UNL1       -0.1516
      6 N           0.0000    0.0000    0.0000 N.ar    1  UNL1        0.3992
      7 C           0.0000    0.0000    0.0000 C.3     1  UNL1       -0.1610
      8 C           0.0000    0.0000    0.0000 C.3     1  UNL1        0.1444
      9 C           0.0000    0.0000    0.0000 C.3     1  UNL1       -0.0650
     10 C           0.0000    0.0000    0.0000 C.3     1  UNL1       -0.0200
     11 C           0.0000    0.0000    0.0000 C.ar    1  UNL1       -0.1316
     12 C           0.0000    0.0000    0.0000 C.ar    1  UNL1       -0.0860
     13 C           0.0000    0.0000    0.0000 C.ar    1  UNL1        0.0000
     14 C           0.0000    0.0000    0.0000 C.ar    1  UNL1        0.0000
     15 C           0.0000    0.0000    0.0000 C.ar    1  UNL1        0.0000
     16 C           0.0000    0.0000    0.0000 C.ar    1  UNL1        0.0000
     17 C           0.0000    0.0000    0.0000 C.ar    1  UNL1        0.0000
     18 C           0.0000    0.0000    0.0000 C.ar    1  UNL1       -0.1516
     19 N           0.0000    0.0000    0.0000 N.ar    1  UNL1        0.8342
     20 C           0.0000    0.0000    0.0000 C.3     1  UNL1       -0.5310
     21 C           0.0000    0.0000    0.0000 C.2     1  UNL1        0.6416
     22 O           0.0000    0.0000    0.0000 O.2     1  UNL1       -0.5700
@<TRIPOS>BOND
     1     1     2    1
     2     2     3   ar
     3     3     4   ar
     4     4     5   ar
     5     5     6   ar
     6     2     6   ar
     7     6     7    1
     8     7     8    1
     9     8     9    1
    10     9    10    1
    11    10    11    1
    12    11    12   ar
    13    12    13   ar
    14    13    14   ar
    15    14    15   ar
    16    15    16   ar
    17    16    17   ar
    18    17    18   ar
    19    13    18   ar
    20    18    19   ar
    21    11    19   ar
    22    19    20    1
    23    12    21    1
    24     8    21    1
    25    21    22    2
@<TRIPOS>MOLECULE
TOX562
 10 9 0 0 0
SMALL
MMFF94_CHARGES

@<TRIPOS>ATOM
      1 F           0.0000    0.0000    0.0000 F       1  UNL1       -0.1495
      2 C           0.0000    0.0000    0.0000 C.3     1  UNL1        0.3757
      3 F           0.0000    0.0000    0.0000 F       1  UNL1       -0.1495
      4 O           0.0000    0.0000    0.0000 O.3     1  UNL1       -0.3567
      5 C           0.0000    0.0000    0.0000 C.3     1  UNL1        1.0982
      6 F           0.0000    0.0000    0.0000 F       1  UNL1       -0.3400
      7 F           0.0000    0.0000    0.0000 F       1  UNL1       -0.3400
      8 C           0.0000    0.0000    0.0000 C.3     1  UNL1        0.1513
      9 F           0.0000    0.0000    0.0000 F       1  UNL1       -0.1495
     10 CL          0.0000    0.0000    0.0000 Cl      1  UNL1       -0.1400
@<TRIPOS>BOND
     1     1     2    1
     2     2     3    1
     3     2     4    1
     4     4     5    1
     5     5     6    1
     6     5     7    1
     7     5     8    1
     8     8     9    1
     9     8    10    1
@<TRIPOS>MOLECULE
TOX560
 19 21 0 0 0
SMALL
MMFF94_CHARGES

@<TRIPOS>ATOM
      1 O           0.0000    0.0000    0.0000 O.co2   1  UNL1       -0.5410
      2 S           0.0000    0.0000    0.0000 S.3     1  UNL1        0.6450
      3 O           0.0000    0.0000    0.0000 O.3     1  UNL1       -0.0950
      4 C           0.0000    0.0000    0.0000 C.3     1  UNL1       -0.0220
      5 C           0.0000    0.0000    0.0000 C.3     1  UNL1       -0.0732
      6 C           0.0000    0.0000    0.0000 C.3     1  UNL1       -0.0732
      7 C           0.0000    0.0000    0.0000 C.3     1  UNL1       -0.0220
      8 O           0.0000    0.0000    0.0000 O.3     1  UNL1       -0.0950
      9 C           0.0000    0.0000    0.0000 C.3     1  UNL1        0.5664
     10 CL          0.0000    0.0000    0.0000 Cl      1  UNL1       -0.2900
     11 C           0.0000    0.0000    0.0000 C.2     1  UNL1        0.0018
     12 CL          0.0000    0.0000    0.0000 Cl      1  UNL1       -0.1400
     13 C           0.0000    0.0000    0.0000 C.2     1  UNL1        0.0018
     14 CL          0.0000    0.0000    0.0000 Cl      1  UNL1       -0.1400
     15 C           0.0000    0.0000    0.0000 C.3     1  UNL1        0.5664
     16 CL          0.0000    0.0000    0.0000 Cl      1  UNL1       -0.2900
     17 C           0.0000    0.0000    0.0000 C.3     1  UNL1        0.5800
     18 CL          0.0000    0.0000    0.0000 Cl      1  UNL1       -0.2900
     19 CL          0.0000    0.0000    0.0000 Cl      1  UNL1       -0.2900
@<TRIPOS>BOND
     1     1     2    1
     2     2     3    1
     3     3     4    1
     4     4     5    1
     5     5     6    1
     6     6     7    1
     7     7     8    1
     8     2     8    1
     9     6     9    1
    10     9    10    1
    11     9    11    1
    12    11    12    1
    13    11    13    2
    14    13    14    1
    15    13    15    1
    16     5    15    1
    17    15    16    1
    18    15    17    1
    19     9    17    1
    20    17    18    1
    21    17    19    1
@<TRIPOS>MOLECULE
TOX561
 19 23 0 0 0
SMALL
MMFF94_CHARGES

@<TRIPOS>ATOM
      1 CL          0.0000    0.0000    0.0000 Cl      1  UNL1       -0.1400
      2 C           0.0000    0.0000    0.0000 C.2     1  UNL1        0.0018
      3 C           0.0000    0.0000    0.0000 C.2     1  UNL1        0.0018
      4 CL          0.0000    0.0000    0.0000 Cl      1  UNL1       -0.1400
      5 C           0.0000    0.0000    0.0000 C.3     1  UNL1        0.5664
      6 CL          0.0000    0.0000    0.0000 Cl      1  UNL1       -0.2900
      7 C           0.0000    0.0000    0.0000 C.3     1  UNL1       -0.1382
      8 C           0.0000    0.0000    0.0000 C.3     1  UNL1       -0.1382
      9 C           0.0000    0.0000    0.0000 C.3     1  UNL1        0.0650
     10 C           0.0000    0.0000    0.0000 C.3     1  UNL1       -0.1300
     11 C           0.0000    0.0000    0.0000 C.3     1  UNL1        0.0650
     12 C           0.0000    0.0000    0.0000 C.3     1  UNL1        0.0767
     13 O           0.0000    0.0000    0.0000 O.3     1  UNL1       -0.1534
     14 C           0.0000    0.0000    0.0000 C.3     1  UNL1        0.0767
     15 C           0.0000    0.0000    0.0000 C.3     1  UNL1        0.5664
     16 CL          0.0000    0.0000    0.0000 Cl      1  UNL1       -0.2900
     17 C           0.0000    0.0000    0.0000 C.3     1  UNL1        0.5800
     18 CL          0.0000    0.0000    0.0000 Cl      1  UNL1       -0.2900
     19 CL          0.0000    0.0000    0.0000 Cl      1  UNL1       -0.2900
@<TRIPOS>BOND
     1     1     2    1
     2     2     3    2
     3     3     4    1
     4     3     5    1
     5     5     6    1
     6     5     7    1
     7     7     8    1
     8     8     9    1
     9     9    10    1
    10    10    11    1
    11     7    11    1
    12    11    12    1
    13    12    13    1
    14    13    14    1
    15     9    14    1
    16    12    14    1
    17     8    15    1
    18     2    15    1
    19    15    16    1
    20    15    17    1
    21     5    17    1
    22    17    18    1
    23    17    19    1
@<TRIPOS>MOLECULE
TOX566
 5 5 0 0 0
SMALL
MMFF94_CHARGES

@<TRIPOS>ATOM
      1 CL          0.0000    0.0000    0.0000 Cl      1  UNL1       -0.1040
      2 C           0.0000    0.0000    0.0000 C.3     1  UNL1        0.0390
      3 C           0.0000    0.0000    0.0000 C.3     1  UNL1        0.2067
      4 C           0.0000    0.0000    0.0000 C.3     1  UNL1       -0.0220
      5 O           0.0000    0.0000    0.0000 O.3     1  UNL1       -0.1197
@<TRIPOS>BOND
     1     1     2    1
     2     2     3    1
     3     3     4    1
     4     4     5    1
     5     3     5    1
@<TRIPOS>MOLECULE
TOX296
 8 8 0 0 0
SMALL
MMFF94_CHARGES

@<TRIPOS>ATOM
      1 N           0.0000    0.0000    0.0000 N.pl3   1  UNL1       -0.1260
      2 C           0.0000    0.0000    0.0000 C.ar    1  UNL1        0.1260
      3 C           0.0000    0.0000    0.0000 C.ar    1  UNL1        0.0000
      4 C           0.0000    0.0000    0.0000 C.ar    1  UNL1        0.0000
      5 C           0.0000    0.0000    0.0000 C.ar    1  UNL1        0.1770
      6 CL          0.0000    0.0000    0.0000 Cl      1  UNL1       -0.1770
      7 C           0.0000    0.0000    0.0000 C.ar    1  UNL1        0.0000
      8 C           0.0000    0.0000    0.0000 C.ar    1  UNL1        0.0000
@<TRIPOS>BOND
     1     1     2    1
     2     2     3   ar
     3     3     4   ar
     4     4     5   ar
     5     5     6    1
     6     5     7   ar
     7     7     8   ar
     8     2     8   ar
@<TRIPOS>MOLECULE
TOX3398
 20 21 0 0 0
SMALL
MMFF94_CHARGES

@<TRIPOS>ATOM
      1 C           0.0000    0.0000    0.0000 C.3     1  UNL1       -0.5000
      2 C           0.0000    0.0000    0.0000 C.3     1  UNL1        0.8000
      3 C           0.0000    0.0000    0.0000 C.3     1  UNL1       -0.5000
      4 N           0.0000    0.0000    0.0000 N.3     1  UNL1       -0.4750
      5 C           0.0000    0.0000    0.0000 C.3     1  UNL1       -0.3900
      6 C           0.0000    0.0000    0.0000 C.3     1  UNL1       -0.0700
      7 C           0.0000    0.0000    0.0000 C.3     1  UNL1       -0.0650
      8 C           0.0000    0.0000    0.0000 C.3     1  UNL1       -0.0730
      9 C           0.0000    0.0000    0.0000 C.ar    1  UNL1        0.0730
     10 C           0.0000    0.0000    0.0000 C.ar    1  UNL1        0.0000
     11 C           0.0000    0.0000    0.0000 C.ar    1  UNL1        0.0730
     12 C           0.0000    0.0000    0.0000 C.3     1  UNL1       -0.3170
     13 O           0.0000    0.0000    0.0000 O.3     1  UNL1       -0.7560
     14 C           0.0000    0.0000    0.0000 C.ar    1  UNL1        0.1330
     15 N           0.0000    0.0000    0.0000 N.pl3   1  UNL1        0.9070
     16 O           0.0000    0.0000    0.0000 O.2     1  UNL1       -0.5200
     17 O           0.0000    0.0000    0.0000 O.co2   1  UNL1       -0.5200
     18 C           0.0000    0.0000    0.0000 C.ar    1  UNL1        0.0000
     19 C           0.0000    0.0000    0.0000 C.ar    1  UNL1       -0.2520
     20 N           0.0000    0.0000    0.0000 N.pl3   1  UNL1       -0.5480
@<TRIPOS>BOND
     1     1     2    1
     2     2     3    1
     3     2     4    1
     4     4     5    1
     5     5     6    1
     6     6     7    1
     7     7     8    1
     8     8     9    1
     9     9    10   ar
    10    10    11   ar
    11    11    12    1
    12    12    13    1
    13    11    14   ar
    14    14    15    1
    15    15    16    2
    16    15    17    1
    17    14    18   ar
    18    18    19   ar
    19     9    19   ar
    20    19    20    1
    21     6    20    1
@<TRIPOS>MOLECULE
TOX25189
 22 23 0 0 0
SMALL
MMFF94_CHARGES

@<TRIPOS>ATOM
      1 C           0.0000    0.0000    0.0000 C.3     1  UNL1       -0.4350
      2 C           0.0000    0.0000    0.0000 C.3     1  UNL1        0.4350
      3 C           0.0000    0.0000    0.0000 C.3     1  UNL1       -0.0960
      4 N           0.0000    0.0000    0.0000 N.ar    1  UNL1        0.3992
      5 C           0.0000    0.0000    0.0000 C.ar    1  UNL1        0.1865
      6 N           0.0000    0.0000    0.0000 N.ar    1  UNL1       -0.5653
      7 C           0.0000    0.0000    0.0000 C.ar    1  UNL1        0.2902
      8 C           0.0000    0.0000    0.0000 C.ar    1  UNL1       -0.2366
      9 C           0.0000    0.0000    0.0000 C.ar    1  UNL1        0.7150
     10 O           0.0000    0.0000    0.0000 O.2     1  UNL1       -0.5700
     11 N           0.0000    0.0000    0.0000 N.ar    1  UNL1       -0.1640
     12 C           0.0000    0.0000    0.0000 C.3     1  UNL1        0.0440
     13 C           0.0000    0.0000    0.0000 C.3     1  UNL1        0.0000
     14 C           0.0000    0.0000    0.0000 C.3     1  UNL1        0.0000
     15 C           0.0000    0.0000    0.0000 C.3     1  UNL1       -0.1050
     16 C           0.0000    0.0000    0.0000 C.2     1  UNL1        1.2150
     17 C           0.0000    0.0000    0.0000 C.3     1  UNL1       -0.5400
     18 O           0.0000    0.0000    0.0000 O.2     1  UNL1       -0.5700
     19 C           0.0000    0.0000    0.0000 C.ar    1  UNL1        0.6900
     20 O           0.0000    0.0000    0.0000 O.2     1  UNL1       -0.5700
     21 N           0.0000    0.0000    0.0000 N.ar    1  UNL1        0.2680
     22 C           0.0000    0.0000    0.0000 C.3     1  UNL1       -0.3910
@<TRIPOS>BOND
     1     1     2    1
     2     2     3    1
     3     3     4    1
     4     4     5   ar
     5     5     6   ar
     6     6     7   ar
     7     7     8   ar
     8     4     8   ar
     9     8     9   ar
    10     9    10    2
    11     9    11   ar
    12    11    12    1
    13    12    13    1
    14    13    14    1
    15    14    15    1
    16    15    16    1
    17    16    17    1
    18    16    18    2
    19    11    19   ar
    20    19    20    2
    21    19    21   ar
    22     7    21   ar
    23    21    22    1
@<TRIPOS>MOLECULE
TOX25188
 22 25 0 0 0
SMALL
MMFF94_CHARGES

@<TRIPOS>ATOM
      1 C           0.0000    0.0000    0.0000 C.ar    1  UNL1        0.0000
      2 C           0.0000    0.0000    0.0000 C.ar    1  UNL1        0.3100
      3 N           0.0000    0.0000    0.0000 N.ar    1  UNL1       -0.6200
      4 C           0.0000    0.0000    0.0000 C.ar    1  UNL1        0.7200
      5 N           0.0000    0.0000    0.0000 N.pl3   1  UNL1       -0.2280
      6 C           0.0000    0.0000    0.0000 C.3     1  UNL1        0.0640
      7 C           0.0000    0.0000    0.0000 C.3     1  UNL1        0.0530
      8 N           0.0000    0.0000    0.0000 N.3     1  UNL1       -0.1590
      9 C           0.0000    0.0000    0.0000 C.3     1  UNL1       -0.0200
     10 C           0.0000    0.0000    0.0000 C.ar    1  UNL1        0.0730
     11 C           0.0000    0.0000    0.0000 C.ar    1  UNL1        0.0000
     12 C           0.0000    0.0000    0.0000 C.ar    1  UNL1        0.0000
     13 C           0.0000    0.0000    0.0000 C.ar    1  UNL1        0.0825
     14 C           0.0000    0.0000    0.0000 C.ar    1  UNL1        0.0825
     15 C           0.0000    0.0000    0.0000 C.ar    1  UNL1        0.0000
     16 O           0.0000    0.0000    0.0000 O.3     1  UNL1       -0.1255
     17 C           0.0000    0.0000    0.0000 C.3     1  UNL1        0.0860
     18 O           0.0000    0.0000    0.0000 O.3     1  UNL1       -0.1255
     19 C           0.0000    0.0000    0.0000 C.3     1  UNL1        0.0530
     20 C           0.0000    0.0000    0.0000 C.3     1  UNL1        0.0640
     21 N           0.0000    0.0000    0.0000 N.ar    1  UNL1       -0.6200
     22 C           0.0000    0.0000    0.0000 C.ar    1  UNL1        0.3100
@<TRIPOS>BOND
     1     1     2   ar
     2     2     3   ar
     3     3     4   ar
     4     4     5    1
     5     5     6    1
     6     6     7    1
     7     7     8    1
     8     8     9    1
     9     9    10    1
    10    10    11   ar
    11    11    12   ar
    12    12    13   ar
    13    13    14   ar
    14    14    15   ar
    15    10    15   ar
    16    14    16    1
    17    16    17    1
    18    17    18    1
    19    13    18    1
    20     8    19    1
    21    19    20    1
    22     5    20    1
    23     4    21   ar
    24    21    22   ar
    25     1    22   ar
@<TRIPOS>MOLECULE
TOX25183
 14 15 0 0 0
SMALL
MMFF94_CHARGES

@<TRIPOS>ATOM
      1 C           0.0000    0.0000    0.0000 C.3     1  UNL1       -0.5000
      2 C           0.0000    0.0000    0.0000 C.ar    1  UNL1        0.6300
      3 C           0.0000    0.0000    0.0000 C.ar    1  UNL1       -0.0650
      4 C           0.0000    0.0000    0.0000 C.ar    1  UNL1       -0.1050
      5 C           0.0000    0.0000    0.0000 C.ar    1  UNL1        0.7350
      6 O           0.0000    0.0000    0.0000 O.2     1  UNL1       -0.5700
      7 N           0.0000    0.0000    0.0000 N.ar    1  UNL1       -0.2210
      8 C           0.0000    0.0000    0.0000 C.ar    1  UNL1        0.1170
      9 C           0.0000    0.0000    0.0000 C.ar    1  UNL1        0.0000
     10 C           0.0000    0.0000    0.0000 C.ar    1  UNL1        0.0000
     11 C           0.0000    0.0000    0.0000 C.ar    1  UNL1        0.0000
     12 C           0.0000    0.0000    0.0000 C.ar    1  UNL1        0.0000
     13 C           0.0000    0.0000    0.0000 C.ar    1  UNL1        0.0000
     14 C           0.0000    0.0000    0.0000 C.ar    1  UNL1       -0.0210
@<TRIPOS>BOND
     1     1     2    1
     2     2     3   ar
     3     3     4   ar
     4     4     5   ar
     5     5     6    2
     6     5     7   ar
     7     7     8    1
     8     8     9   ar
     9     9    10   ar
    10    10    11   ar
    11    11    12   ar
    12    12    13   ar
    13     8    13   ar
    14     7    14   ar
    15     2    14   ar
@<TRIPOS>MOLECULE
TOX25182
 29 32 0 0 0
SMALL
MMFF94_CHARGES

@<TRIPOS>ATOM
      1 C           0.0000    0.0000    0.0000 C.3     1  UNL1       -0.5000
      2 C           0.0000    0.0000    0.0000 C.ar    1  UNL1        0.6710
      3 N           0.0000    0.0000    0.0000 N.ar    1  UNL1       -0.6210
      4 C           0.0000    0.0000    0.0000 C.ar    1  UNL1        0.6150
      5 C           0.0000    0.0000    0.0000 C.ar    1  UNL1       -0.1050
      6 C           0.0000    0.0000    0.0000 C.ar    1  UNL1        0.0000
      7 C           0.0000    0.0000    0.0000 C.ar    1  UNL1        0.0000
      8 C           0.0000    0.0000    0.0000 C.ar    1  UNL1        0.0440
      9 N           0.0000    0.0000    0.0000 N.ar    1  UNL1       -0.1640
     10 C           0.0000    0.0000    0.0000 C.ar    1  UNL1        0.6156
     11 O           0.0000    0.0000    0.0000 O.2     1  UNL1       -0.5700
     12 C           0.0000    0.0000    0.0000 C.ar    1  UNL1        0.0794
     13 C           0.0000    0.0000    0.0000 C.3     1  UNL1       -0.0650
     14 C           0.0000    0.0000    0.0000 C.3     1  UNL1        0.0530
     15 N           0.0000    0.0000    0.0000 N.3     1  UNL1       -0.1590
     16 C           0.0000    0.0000    0.0000 C.3     1  UNL1        0.0530
     17 C           0.0000    0.0000    0.0000 C.3     1  UNL1       -0.0650
     18 C           0.0000    0.0000    0.0000 C.3     1  UNL1        0.1444
     19 C           0.0000    0.0000    0.0000 C.2     1  UNL1        0.4694
     20 O           0.0000    0.0000    0.0000 O.2     1  UNL1       -0.5700
     21 C           0.0000    0.0000    0.0000 C.ar    1  UNL1        0.0862
     22 C           0.0000    0.0000    0.0000 C.ar    1  UNL1        0.0000
     23 C           0.0000    0.0000    0.0000 C.ar    1  UNL1        0.0000
     24 C           0.0000    0.0000    0.0000 C.ar    1  UNL1        0.1900
     25 F           0.0000    0.0000    0.0000 F       1  UNL1       -0.1900
     26 C           0.0000    0.0000    0.0000 C.ar    1  UNL1        0.0000
     27 C           0.0000    0.0000    0.0000 C.ar    1  UNL1        0.0000
     28 C           0.0000    0.0000    0.0000 C.3     1  UNL1       -0.0650
     29 C           0.0000    0.0000    0.0000 C.3     1  UNL1        0.0530
@<TRIPOS>BOND
     1     1     2    1
     2     2     3   ar
     3     3     4   ar
     4     4     5   ar
     5     5     6   ar
     6     6     7   ar
     7     7     8   ar
     8     8     9   ar
     9     4     9   ar
    10     9    10   ar
    11    10    11    2
    12    10    12   ar
    13     2    12   ar
    14    12    13    1
    15    13    14    1
    16    14    15    1
    17    15    16    1
    18    16    17    1
    19    17    18    1
    20    18    19    1
    21    19    20    2
    22    19    21    1
    23    21    22   ar
    24    22    23   ar
    25    23    24   ar
    26    24    25    1
    27    24    26   ar
    28    26    27   ar
    29    21    27   ar
    30    18    28    1
    31    28    29    1
    32    15    29    1
@<TRIPOS>MOLECULE
TOX25181
 32 36 0 0 0
SMALL
MMFF94_CHARGES

@<TRIPOS>ATOM
      1 O           0.0000    0.0000    0.0000 O.2     1  UNL1       -0.5700
      2 C           0.0000    0.0000    0.0000 C.ar    1  UNL1        0.4100
      3 N           0.0000    0.0000    0.0000 N.ar    1  UNL1       -0.5280
      4 C           0.0000    0.0000    0.0000 C.ar    1  UNL1       -0.2520
      5 C           0.0000    0.0000    0.0000 C.ar    1  UNL1        0.0000
      6 C           0.0000    0.0000    0.0000 C.ar    1  UNL1        0.0000
      7 C           0.0000    0.0000    0.0000 C.ar    1  UNL1        0.0000
      8 C           0.0000    0.0000    0.0000 C.ar    1  UNL1        0.0000
      9 C           0.0000    0.0000    0.0000 C.ar    1  UNL1        0.1170
     10 N           0.0000    0.0000    0.0000 N.ar    1  UNL1       -0.2210
     11 C           0.0000    0.0000    0.0000 C.3     1  UNL1        0.0440
     12 C           0.0000    0.0000    0.0000 C.3     1  UNL1        0.0000
     13 C           0.0000    0.0000    0.0000 C.3     1  UNL1        0.0530
     14 N           0.0000    0.0000    0.0000 N.3     1  UNL1       -0.1590
     15 C           0.0000    0.0000    0.0000 C.3     1  UNL1        0.0530
     16 C           0.0000    0.0000    0.0000 C.3     1  UNL1        0.0530
     17 N           0.0000    0.0000    0.0000 N.3     1  UNL1       -0.2240
     18 C           0.0000    0.0000    0.0000 C.3     1  UNL1        0.0612
     19 C           0.0000    0.0000    0.0000 C.ar    1  UNL1        0.0284
     20 C           0.0000    0.0000    0.0000 C.ar    1  UNL1        0.0000
     21 C           0.0000    0.0000    0.0000 C.ar    1  UNL1        0.0000
     22 C           0.0000    0.0000    0.0000 C.ar    1  UNL1        0.0000
     23 C           0.0000    0.0000    0.0000 C.ar    1  UNL1        0.0000
     24 C           0.0000    0.0000    0.0000 C.ar    1  UNL1        0.0000
     25 C           0.0000    0.0000    0.0000 C.ar    1  UNL1        0.0284
     26 C           0.0000    0.0000    0.0000 C.ar    1  UNL1        0.0000
     27 C           0.0000    0.0000    0.0000 C.ar    1  UNL1        0.0000
     28 C           0.0000    0.0000    0.0000 C.ar    1  UNL1        0.0000
     29 C           0.0000    0.0000    0.0000 C.ar    1  UNL1        0.0000
     30 C           0.0000    0.0000    0.0000 C.ar    1  UNL1        0.0000
     31 C           0.0000    0.0000    0.0000 C.3     1  UNL1        0.0530
     32 C           0.0000    0.0000    0.0000 C.3     1  UNL1        0.0530
@<TRIPOS>BOND
     1     1     2    2
     2     2     3   ar
     3     3     4   ar
     4     4     5   ar
     5     5     6   ar
     6     6     7   ar
     7     7     8   ar
     8     8     9   ar
     9     4     9   ar
    10     9    10   ar
    11     2    10   ar
    12    10    11    1
    13    11    12    1
    14    12    13    1
    15    13    14    1
    16    14    15    1
    17    15    16    1
    18    16    17    1
    19    17    18    1
    20    18    19    1
    21    19    20   ar
    22    20    21   ar
    23    21    22   ar
    24    22    23   ar
    25    23    24   ar
    26    19    24   ar
    27    18    25    1
    28    25    26   ar
    29    26    27   ar
    30    27    28   ar
    31    28    29   ar
    32    29    30   ar
    33    25    30   ar
    34    17    31    1
    35    31    32    1
    36    14    32    1
@<TRIPOS>MOLECULE
TOX25180
 11 11 0 0 0
SMALL
MMFF94_CHARGES

@<TRIPOS>ATOM
      1 N           0.0000    0.0000    0.0000 N.am    1  UNL1       -0.1580
      2 C           0.0000    0.0000    0.0000 C.2     1  UNL1        0.8330
      3 O           0.0000    0.0000    0.0000 O.2     1  UNL1       -0.5700
      4 C           0.0000    0.0000    0.0000 C.3     1  UNL1       -0.0610
      5 N           0.0000    0.0000    0.0000 N.am    1  UNL1       -0.1480
      6 C           0.0000    0.0000    0.0000 C.3     1  UNL1       -0.0210
      7 C           0.0000    0.0000    0.0000 C.3     1  UNL1       -0.0200
      8 O           0.0000    0.0000    0.0000 O.3     1  UNL1       -0.8500
      9 C           0.0000    0.0000    0.0000 C.3     1  UNL1       -0.1700
     10 C           0.0000    0.0000    0.0000 C.2     1  UNL1        0.7350
     11 O           0.0000    0.0000    0.0000 O.2     1  UNL1       -0.5700
@<TRIPOS>BOND
     1     1     2   am
     2     2     3    2
     3     2     4    1
     4     4     5    1
     5     5     6    1
     6     6     7    1
     7     7     8    1
     8     7     9    1
     9     9    10    1
    10     5    10   am
    11    10    11    2
@<TRIPOS>MOLECULE
TOX25187
 24 26 0 0 0
SMALL
MMFF94_CHARGES

@<TRIPOS>ATOM
      1 C           0.0000    0.0000    0.0000 C.3     1  UNL1       -0.4350
      2 C           0.0000    0.0000    0.0000 C.3     1  UNL1        0.3300
      3 C           0.0000    0.0000    0.0000 C.2     1  UNL1        0.5888
      4 O           0.0000    0.0000    0.0000 O.2     1  UNL1       -0.5700
      5 C           0.0000    0.0000    0.0000 C.ar    1  UNL1        0.0862
      6 C           0.0000    0.0000    0.0000 C.ar    1  UNL1        0.0000
      7 C           0.0000    0.0000    0.0000 C.ar    1  UNL1        0.0000
      8 C           0.0000    0.0000    0.0000 C.ar    1  UNL1        0.1015
      9 C           0.0000    0.0000    0.0000 C.ar    1  UNL1        0.1000
     10 C           0.0000    0.0000    0.0000 C.ar    1  UNL1        0.0000
     11 N           0.0000    0.0000    0.0000 N.pl3   1  UNL1       -0.2640
     12 C           0.0000    0.0000    0.0000 C.3     1  UNL1        0.0640
     13 C           0.0000    0.0000    0.0000 C.3     1  UNL1        0.0000
     14 C           0.0000    0.0000    0.0000 C.3     1  UNL1        0.0530
     15 N           0.0000    0.0000    0.0000 N.3     1  UNL1        0.7110
     16 C           0.0000    0.0000    0.0000 C.3     1  UNL1       -0.3820
     17 C           0.0000    0.0000    0.0000 C.3     1  UNL1       -0.3820
     18 C           0.0000    0.0000    0.0000 C.ar    1  UNL1        0.1000
     19 C           0.0000    0.0000    0.0000 C.ar    1  UNL1        0.0000
     20 C           0.0000    0.0000    0.0000 C.ar    1  UNL1        0.0000
     21 C           0.0000    0.0000    0.0000 C.ar    1  UNL1        0.0000
     22 C           0.0000    0.0000    0.0000 C.ar    1  UNL1        0.0000
     23 C           0.0000    0.0000    0.0000 C.ar    1  UNL1        0.1015
     24 S           0.0000    0.0000    0.0000 S.3     1  UNL1       -0.2030
@<TRIPOS>BOND
     1     1     2    1
     2     2     3    1
     3     3     4    2
     4     3     5    1
     5     5     6   ar
     6     6     7   ar
     7     7     8   ar
     8     8     9   ar
     9     9    10   ar
    10     5    10   ar
    11     9    11    1
    12    11    12    1
    13    12    13    1
    14    13    14    1
    15    14    15    1
    16    15    16    1
    17    15    17    1
    18    11    18    1
    19    18    19   ar
    20    19    20   ar
    21    20    21   ar
    22    21    22   ar
    23    22    23   ar
    24    18    23   ar
    25    23    24    1
    26     8    24    1
@<TRIPOS>MOLECULE
TOX25186
 14 15 0 0 0
SMALL
MMFF94_CHARGES

@<TRIPOS>ATOM
      1 C           0.0000    0.0000    0.0000 C.3     1  UNL1       -0.4350
      2 C           0.0000    0.0000    0.0000 C.3     1  UNL1        0.4350
      3 C           0.0000    0.0000    0.0000 C.3     1  UNL1        0.0440
      4 N           0.0000    0.0000    0.0000 N.ar    1  UNL1       -0.1800
      5 C           0.0000    0.0000    0.0000 C.ar    1  UNL1        0.4100
      6 O           0.0000    0.0000    0.0000 O.2     1  UNL1       -0.5700
      7 N           0.0000    0.0000    0.0000 N.ar    1  UNL1       -0.5600
      8 C           0.0000    0.0000    0.0000 C.ar    1  UNL1        0.4230
      9 O           0.0000    0.0000    0.0000 O.2     1  UNL1       -0.5700
     10 C           0.0000    0.0000    0.0000 C.ar    1  UNL1        0.2020
     11 N           0.0000    0.0000    0.0000 N.ar    1  UNL1       -1.0500
     12 C           0.0000    0.0000    0.0000 C.ar    1  UNL1        0.5500
     13 N           0.0000    0.0000    0.0000 N.ar    1  UNL1       -1.0500
     14 C           0.0000    0.0000    0.0000 C.ar    1  UNL1        0.3510
@<TRIPOS>BOND
     1     1     2    1
     2     2     3    1
     3     3     4    1
     4     4     5   ar
     5     5     6    2
     6     5     7   ar
     7     7     8   ar
     8     8     9    2
     9     8    10   ar
    10    10    11   ar
    11    11    12   ar
    12    12    13   ar
    13    13    14   ar
    14    10    14   ar
    15     4    14   ar
@<TRIPOS>MOLECULE
TOX25184
 25 26 0 0 0
SMALL
MMFF94_CHARGES

@<TRIPOS>ATOM
      1 C           0.0000    0.0000    0.0000 C.3     1  UNL1       -0.4350
      2 C           0.0000    0.0000    0.0000 C.3     1  UNL1        0.4350
      3 C           0.0000    0.0000    0.0000 C.3     1  UNL1       -0.3250
      4 N           0.0000    0.0000    0.0000 N.3     1  UNL1       -0.3500
      5 C           0.0000    0.0000    0.0000 C.3     1  UNL1       -0.3900
      6 C           0.0000    0.0000    0.0000 C.3     1  UNL1       -0.0200
      7 O           0.0000    0.0000    0.0000 O.3     1  UNL1       -0.8500
      8 C           0.0000    0.0000    0.0000 C.3     1  UNL1       -0.0220
      9 O           0.0000    0.0000    0.0000 O.3     1  UNL1       -0.1255
     10 C           0.0000    0.0000    0.0000 C.ar    1  UNL1        0.0825
     11 C           0.0000    0.0000    0.0000 C.ar    1  UNL1        0.0000
     12 C           0.0000    0.0000    0.0000 C.ar    1  UNL1        0.0000
     13 C           0.0000    0.0000    0.0000 C.ar    1  UNL1        0.0000
     14 C           0.0000    0.0000    0.0000 C.ar    1  UNL1        0.0000
     15 C           0.0000    0.0000    0.0000 C.ar    1  UNL1        0.0862
     16 C           0.0000    0.0000    0.0000 C.2     1  UNL1        0.5888
     17 O           0.0000    0.0000    0.0000 O.2     1  UNL1       -0.5700
     18 C           0.0000    0.0000    0.0000 C.3     1  UNL1       -0.1050
     19 C           0.0000    0.0000    0.0000 C.3     1  UNL1       -0.0730
     20 C           0.0000    0.0000    0.0000 C.ar    1  UNL1        0.0730
     21 C           0.0000    0.0000    0.0000 C.ar    1  UNL1        0.0000
     22 C           0.0000    0.0000    0.0000 C.ar    1  UNL1        0.0000
     23 C           0.0000    0.0000    0.0000 C.ar    1  UNL1        0.0000
     24 C           0.0000    0.0000    0.0000 C.ar    1  UNL1        0.0000
     25 C           0.0000    0.0000    0.0000 C.ar    1  UNL1        0.0000
@<TRIPOS>BOND
     1     1     2    1
     2     2     3    1
     3     3     4    1
     4     4     5    1
     5     5     6    1
     6     6     7    1
     7     6     8    1
     8     8     9    1
     9     9    10    1
    10    10    11   ar
    11    11    12   ar
    12    12    13   ar
    13    13    14   ar
    14    14    15   ar
    15    10    15   ar
    16    15    16    1
    17    16    17    2
    18    16    18    1
    19    18    19    1
    20    19    20    1
    21    20    21   ar
    22    21    22   ar
    23    22    23   ar
    24    23    24   ar
    25    24    25   ar
    26    20    25   ar
